[TITLE]
;;Project Title/Notes
Converted using pyEPANETtoSWMM

[JUNCTIONS]
;;Name			Elevation			MaxDepth			InitDepth			SurDepth			Aponded
571657			46.999999			1000			0			0			0
696681A			33.000001			1000			0			0			0
696682A			33.000001			1000			0			0			0
697681A			33.081631			1000			0			0			0
701666			27.699999			1000			0			0			0
701666A			27.749240			1000			0			0			0
701666B			27.510680			1000			0			0			0
701666C			27.570630			1000			0			0			0
702666			27.600000			1000			0			0			0
70288357			81.499999			1000			0			0			0
70288359			81.499999			1000			0			0			0
70288360			81.499999			1000			0			0			0
70288361			81.499999			1000			0			0			0
70288362			81.499999			1000			0			0			0
70288363			81.499999			1000			0			0			0
70288364			81.499999			1000			0			0			0
70288365			81.499999			1000			0			0			0
70288366			81.499999			1000			0			0			0
70288367			81.499999			1000			0			0			0
70288368			81.499999			1000			0			0			0
70288369			81.499999			1000			0			0			0
70288370			81.499999			1000			0			0			0
70288457			47.999999			1000			0			0			0
70288459			50.000002			1000			0			0			0
70288460			54.500002			1000			0			0			0
70288461			47.500001			1000			0			0			0
70288462			47.999999			1000			0			0			0
70288463			47.999999			1000			0			0			0
70288464			47.999999			1000			0			0			0
70288479			53.000000			1000			0			0			0
70288480			53.000000			1000			0			0			0
70288481			53.000000			1000			0			0			0
70288501			71.999998			1000			0			0			0
70288502			71.999998			1000			0			0			0
70288503			71.999998			1000			0			0			0
70288504			71.999998			1000			0			0			0
70288505			81.499999			1000			0			0			0
70288664			13.000000			1000			0			0			0
70288665			12.500001			1000			0			0			0
70288666			11.000000			1000			0			0			0
70291131			17.700000			1000			0			0			0
70293376			33.229999			1000			0			0			0
70293387			32.400000			1000			0			0			0
70293388			33.700000			1000			0			0			0
70293389			33.700000			1000			0			0			0
70293402			17.900000			1000			0			0			0
70293403			18.700001			1000			0			0			0
70293404			19.100000			1000			0			0			0
70293405			18.700001			1000			0			0			0
70293406			18.500000			1000			0			0			0
70293407			18.700001			1000			0			0			0
70293446			16.899999			1000			0			0			0
70293448			16.600000			1000			0			0			0
70293449			18.800000			1000			0			0			0
70293450			17.299999			1000			0			0			0
70293452			17.600001			1000			0			0			0
70293453			17.500000			1000			0			0			0
70293454			17.400000			1000			0			0			0
70293455			17.000000			1000			0			0			0
70293456			17.200001			1000			0			0			0
70293457			17.000000			1000			0			0			0
70293458			16.700001			1000			0			0			0
70293459			17.299999			1000			0			0			0
70293460			18.899999			1000			0			0			0
70293461			18.600000			1000			0			0			0
70293462			18.400000			1000			0			0			0
70293463			18.299999			1000			0			0			0
70293464			18.100000			1000			0			0			0
70293465			18.000000			1000			0			0			0
70293466			18.000000			1000			0			0			0
70293467			18.000000			1000			0			0			0
70293516			35.999999			1000			0			0			0
70293517			35.999999			1000			0			0			0
70293518			35.999999			1000			0			0			0
70293519			35.999999			1000			0			0			0
70293520			35.999999			1000			0			0			0
70293521			35.999999			1000			0			0			0
70293576			35.800000			1000			0			0			0
70293582			29.200000			1000			0			0			0
70293585			33.599999			1000			0			0			0
70293586			34.299998			1000			0			0			0
70293588			29.200000			1000			0			0			0
70293589			28.400000			1000			0			0			0
70293590			35.200001			1000			0			0			0
70293591			35.200001			1000			0			0			0
70293592			35.200001			1000			0			0			0
70293593			36.047001			1000			0			0			0
70293594			35.939998			1000			0			0			0
70293595			36.047001			1000			0			0			0
70293596			35.980000			1000			0			0			0
70293597			27.500000			1000			0			0			0
70293598			27.500000			1000			0			0			0
70293599			27.500000			1000			0			0			0
70293600			29.090000			1000			0			0			0
70293601			28.039999			1000			0			0			0
70293602			28.499999			1000			0			0			0
70293603			28.039999			1000			0			0			0
70293604			28.499999			1000			0			0			0
70293605			28.499999			1000			0			0			0
70293606			27.600000			1000			0			0			0
70293607			27.600000			1000			0			0			0
70293608			27.600000			1000			0			0			0
70293609			33.925000			1000			0			0			0
70293610			33.899997			1000			0			0			0
70293674			32.418999			1000			0			0			0
70293675			31.509999			1000			0			0			0
70293676			30.000000			1000			0			0			0
70293677			30.000000			1000			0			0			0
70293678			32.620003			1000			0			0			0
70293679			32.620003			1000			0			0			0
70293680			32.620003			1000			0			0			0
70293681			32.620003			1000			0			0			0
70293682			31.632001			1000			0			0			0
70293683			31.632001			1000			0			0			0
70293684			31.632001			1000			0			0			0
70293727			29.950001			1000			0			0			0
70293729			23.500000			1000			0			0			0
70293730			23.250001			1000			0			0			0
70293731			24.180000			1000			0			0			0
70293732			24.180000			1000			0			0			0
70293733			24.100000			1000			0			0			0
70293734			24.200001			1000			0			0			0
70293735			24.100000			1000			0			0			0
70293736			24.200001			1000			0			0			0
70293737			24.200001			1000			0			0			0
70293738			24.200001			1000			0			0			0
70293739			21.200001			1000			0			0			0
70293740			22.700000			1000			0			0			0
70293741			21.599999			1000			0			0			0
70293742			22.700000			1000			0			0			0
70293743			24.250000			1000			0			0			0
70293744			23.500000			1000			0			0			0
70293745			23.500000			1000			0			0			0
70293799			19.400000			1000			0			0			0
70293800			19.700002			1000			0			0			0
70293810			19.100000			1000			0			0			0
70293811			19.400000			1000			0			0			0
70293812			19.700002			1000			0			0			0
70293813			19.700002			1000			0			0			0
70293814			19.899999			1000			0			0			0
70293815			19.800000			1000			0			0			0
70293816			19.899999			1000			0			0			0
70293817			19.000000			1000			0			0			0
70293818			19.899999			1000			0			0			0
70293819			19.899999			1000			0			0			0
70293820			19.899999			1000			0			0			0
70293821			20.499999			1000			0			0			0
70293822			20.999999			1000			0			0			0
70293823			21.500001			1000			0			0			0
70293824			20.600000			1000			0			0			0
70293825			20.000000			1000			0			0			0
70293826			21.299999			1000			0			0			0
70293898			18.400000			1000			0			0			0
70293899			19.200001			1000			0			0			0
70293901			19.000000			1000			0			0			0
70293902			19.000000			1000			0			0			0
70293904			18.100000			1000			0			0			0
70293905			19.200001			1000			0			0			0
70293906			18.000000			1000			0			0			0
70293907			18.000000			1000			0			0			0
70293908			18.000000			1000			0			0			0
70293909			19.600001			1000			0			0			0
70293910			19.700002			1000			0			0			0
70293911			19.100000			1000			0			0			0
70293912			18.400000			1000			0			0			0
70293913			19.100000			1000			0			0			0
70293914			19.000000			1000			0			0			0
70293915			18.600000			1000			0			0			0
70293916			19.100000			1000			0			0			0
70293917			19.000000			1000			0			0			0
70293918			19.200001			1000			0			0			0
70293919			19.200001			1000			0			0			0
70293920			19.600001			1000			0			0			0
70293921			18.200001			1000			0			0			0
70293922			17.299999			1000			0			0			0
70293923			19.000000			1000			0			0			0
70293924			18.500000			1000			0			0			0
70293925			19.000000			1000			0			0			0
70293926			18.500000			1000			0			0			0
70293927			19.200001			1000			0			0			0
70293928			18.899999			1000			0			0			0
70293929			18.899999			1000			0			0			0
70293930			18.100000			1000			0			0			0
70293931			18.100000			1000			0			0			0
70293987			17.000000			1000			0			0			0
70294029			79.000003			1000			0			0			0
70294030			79.000003			1000			0			0			0
70294031			85.000000			1000			0			0			0
70294032			81.000002			1000			0			0			0
70294033			81.000002			1000			0			0			0
70294034			81.000002			1000			0			0			0
70294035			81.000002			1000			0			0			0
70294036			81.000002			1000			0			0			0
70294037			81.000002			1000			0			0			0
70294038			80.499995			1000			0			0			0
70294039			81.000002			1000			0			0			0
70294040			79.000003			1000			0			0			0
70294041			80.499995			1000			0			0			0
70294042			79.000003			1000			0			0			0
70294043			79.000003			1000			0			0			0
70294045			85.000000			1000			0			0			0
70294051			86.999998			1000			0			0			0
70294104			46.999999			1000			0			0			0
70294106			46.999999			1000			0			0			0
70294107			46.999999			1000			0			0			0
70294108			46.999999			1000			0			0			0
70294129			41.899999			1000			0			0			0
70294130			41.899999			1000			0			0			0
70294131			41.899999			1000			0			0			0
70294132			41.899999			1000			0			0			0
70294133			37.200000			1000			0			0			0
70294149			21.500001			1000			0			0			0
70294150			21.299999			1000			0			0			0
70294165			81.499999			1000			0			0			0
70294167			81.499999			1000			0			0			0
70294168			81.499999			1000			0			0			0
70294169			81.499999			1000			0			0			0
70294170			81.499999			1000			0			0			0
70294171			81.499999			1000			0			0			0
70294184			46.999999			1000			0			0			0
70294186			62.999999			1000			0			0			0
70294187			46.999999			1000			0			0			0
70294188			46.999999			1000			0			0			0
70294199			34.500000			1000			0			0			0
70294200			34.500000			1000			0			0			0
70294201			34.500000			1000			0			0			0
70294202			34.500000			1000			0			0			0
70294203			34.500000			1000			0			0			0
70294204			34.500000			1000			0			0			0
70294221			15.100000			1000			0			0			0
70294226			13.200000			1000			0			0			0
70294232			56.999998			1000			0			0			0
70294233			55.999999			1000			0			0			0
70294252			15.500000			1000			0			0			0
70294255			11.900000			1000			0			0			0
70294256			11.900000			1000			0			0			0
70294257			16.200000			1000			0			0			0
70294258			11.699999			1000			0			0			0
70294259			13.800000			1000			0			0			0
70294260			16.000000			1000			0			0			0
70294261			15.600001			1000			0			0			0
70294262			17.000000			1000			0			0			0
70294361			17.000000			1000			0			0			0
70294362			15.800000			1000			0			0			0
70294363			16.800000			1000			0			0			0
70294364			15.399999			1000			0			0			0
70294365			15.399999			1000			0			0			0
70294366			15.399999			1000			0			0			0
70294367			15.399999			1000			0			0			0
70294368			15.399999			1000			0			0			0
70294369			15.399999			1000			0			0			0
70294370			15.399999			1000			0			0			0
70294371			15.699999			1000			0			0			0
70294372			15.699999			1000			0			0			0
70294373			15.399999			1000			0			0			0
70294374			15.399999			1000			0			0			0
70294407			17.200001			1000			0			0			0
70294408			19.400000			1000			0			0			0
70294409			18.200001			1000			0			0			0
70294410			19.400000			1000			0			0			0
70294411			19.000000			1000			0			0			0
70294412			19.500000			1000			0			0			0
704667			27.999999			1000			0			0			0
704705B			19.200001			1000			0			0			0
705667			29.000001			1000			0			0			0
705710A			18.000000			1000			0			0			0
706667			29.000001			1000			0			0			0
706708B			18.400000			1000			0			0			0
707667			30.000000			1000			0			0			0
708667			31.000000			1000			0			0			0
709666			35.999999			1000			0			0			0
709667			35.000000			1000			0			0			0
70996710			30.000000			1000			0			0			0
70996754			21.599999			1000			0			0			0
70996755			21.599999			1000			0			0			0
70996756			22.299999			1000			0			0			0
70996757			23.300000			1000			0			0			0
70996758			20.799999			1000			0			0			0
70996759			20.900000			1000			0			0			0
70996760			22.299999			1000			0			0			0
70996761			22.299999			1000			0			0			0
71007772			22.500000			1000			0			0			0
71007780			15.000000			1000			0			0			0
71007784			14.000000			1000			0			0			0
71009610			15.200000			1000			0			0			0
71009613			21.100000			1000			0			0			0
71009617			23.999999			1000			0			0			0
71009628			18.800000			1000			0			0			0
71009629			17.900000			1000			0			0			0
71009639			14.000000			1000			0			0			0
71009640			19.299999			1000			0			0			0
71009641			15.600001			1000			0			0			0
710663			42.500000			1000			0			0			0
710665			37.500001			1000			0			0			0
711660			50.000002			1000			0			0			0
712659			53.499998			1000			0			0			0
713658			48.999998			1000			0			0			0
717649			69.811346			1000			0			0			0
721663			46.000000			1000			0			0			0
721667			35.554870			1000			0			0			0
78681435			18.400000			1000			0			0			0
78681439			18.800000			1000			0			0			0
78681441			19.400000			1000			0			0			0
78681451			18.299999			1000			0			0			0
78681453			19.000000			1000			0			0			0
78681459			18.100000			1000			0			0			0
78681461			18.299999			1000			0			0			0
78681463			18.200001			1000			0			0			0
78681467			18.200001			1000			0			0			0
78681469			18.299999			1000			0			0			0
78682113			18.000000			1000			0			0			0
78682116			19.000000			1000			0			0			0
78682119			18.800000			1000			0			0			0
78682122			19.400000			1000			0			0			0
78682125			19.000000			1000			0			0			0
78682128			18.600000			1000			0			0			0
78682131			18.500000			1000			0			0			0
78682134			18.700001			1000			0			0			0
78682137			18.100000			1000			0			0			0
78682140			18.000000			1000			0			0			0
78682143			18.000000			1000			0			0			0
78682147			18.600000			1000			0			0			0
78682150			18.600000			1000			0			0			0
78682153			18.200001			1000			0			0			0
79174739			81.499999			1000			0			0			0
79174740			81.499999			1000			0			0			0
79174741			81.499999			1000			0			0			0
79174742			81.499999			1000			0			0			0
79174743			77.999999			1000			0			0			0
79174744			81.499999			1000			0			0			0
79174745			81.499999			1000			0			0			0
79174746			81.499999			1000			0			0			0
79174747			81.529998			1000			0			0			0
79174808			47.999999			1000			0			0			0
79174809			47.500001			1000			0			0			0
79174821			69.300010			1000			0			0			0
79174822			53.000000			1000			0			0			0
79174823			53.000000			1000			0			0			0
79174830			81.499999			1000			0			0			0
79174831			81.499999			1000			0			0			0
79174832			81.499999			1000			0			0			0
79174833			71.999998			1000			0			0			0
79174834			71.999998			1000			0			0			0
79174835			81.499999			1000			0			0			0
79174836			81.499999			1000			0			0			0
79174924			11.000000			1000			0			0			0
79177787			33.700000			1000			0			0			0
79177788			33.700000			1000			0			0			0
79177794			18.400000			1000			0			0			0
79177795			18.500000			1000			0			0			0
79177805			14.899999			1000			0			0			0
79177806			18.000000			1000			0			0			0
79177807			18.000000			1000			0			0			0
79177808			16.899999			1000			0			0			0
79177809			19.100000			1000			0			0			0
79177810			18.299999			1000			0			0			0
79177811			18.600000			1000			0			0			0
79177812			18.800000			1000			0			0			0
79177813			17.000000			1000			0			0			0
79177814			17.000000			1000			0			0			0
79177815			18.100000			1000			0			0			0
79177816			17.600001			1000			0			0			0
79177817			18.899999			1000			0			0			0
79177818			18.000000			1000			0			0			0
79177819			17.299999			1000			0			0			0
79177820			17.299999			1000			0			0			0
79177863			35.999999			1000			0			0			0
79177864			35.999999			1000			0			0			0
79177866			35.999999			1000			0			0			0
79177880			27.500000			1000			0			0			0
79177881			29.090000			1000			0			0			0
79177882			28.039999			1000			0			0			0
79177883			28.499999			1000			0			0			0
79177884			28.499999			1000			0			0			0
79177885			27.600000			1000			0			0			0
79177886			27.600000			1000			0			0			0
79177887			29.000001			1000			0			0			0
79177888			33.925000			1000			0			0			0
79177889			33.899997			1000			0			0			0
79177890			35.200001			1000			0			0			0
79177891			35.980000			1000			0			0			0
79177892			35.980000			1000			0			0			0
79177943			32.620003			1000			0			0			0
79177944			33.599999			1000			0			0			0
79177945			31.632001			1000			0			0			0
79177946			30.000000			1000			0			0			0
79177947			32.785000			1000			0			0			0
79177970			29.596000			1000			0			0			0
79177971			23.540000			1000			0			0			0
79177972			24.250000			1000			0			0			0
79177973			24.250000			1000			0			0			0
79177974			24.210001			1000			0			0			0
79177975			24.210001			1000			0			0			0
79177976			24.200001			1000			0			0			0
79177977			24.200001			1000			0			0			0
79177978			24.189999			1000			0			0			0
79177979			24.189999			1000			0			0			0
79177980			24.180000			1000			0			0			0
79177981			30.000000			1000			0			0			0
79177985			21.599999			1000			0			0			0
79177986			21.599999			1000			0			0			0
79178017			19.800000			1000			0			0			0
79178018			19.899999			1000			0			0			0
79178019			19.800000			1000			0			0			0
79178020			19.899999			1000			0			0			0
79178021			19.700002			1000			0			0			0
79178022			19.400000			1000			0			0			0
79178023			19.899999			1000			0			0			0
79178024			19.700002			1000			0			0			0
79178025			20.799999			1000			0			0			0
79178026			20.000000			1000			0			0			0
79178027			20.000000			1000			0			0			0
79178064			17.299999			1000			0			0			0
79178065			18.200001			1000			0			0			0
79178066			17.200001			1000			0			0			0
79178067			18.899999			1000			0			0			0
79178068			18.899999			1000			0			0			0
79178069			18.500000			1000			0			0			0
79178070			19.000000			1000			0			0			0
79178071			19.200001			1000			0			0			0
79178072			19.100000			1000			0			0			0
79178073			18.899999			1000			0			0			0
79178074			18.500000			1000			0			0			0
79178075			19.200001			1000			0			0			0
79178076			18.100000			1000			0			0			0
79178077			18.200001			1000			0			0			0
79178078			18.000000			1000			0			0			0
79178079			19.600001			1000			0			0			0
79178080			18.000000			1000			0			0			0
79178081			18.400000			1000			0			0			0
79178142			18.000000			1000			0			0			0
79178143			17.600001			1000			0			0			0
79178146			85.000000			1000			0			0			0
79178147			86.999998			1000			0			0			0
79178148			86.999998			1000			0			0			0
79178149			86.999998			1000			0			0			0
79178150			81.000002			1000			0			0			0
79178152			79.000003			1000			0			0			0
79178153			81.000002			1000			0			0			0
79178154			79.000003			1000			0			0			0
79178155			80.499995			1000			0			0			0
79178156			81.000002			1000			0			0			0
79178157			81.000002			1000			0			0			0
79178207			86.999998			1000			0			0			0
79178208			86.999998			1000			0			0			0
79178209			86.999998			1000			0			0			0
79178210			86.999998			1000			0			0			0
79178214			69.000000			1000			0			0			0
79178215			46.999999			1000			0			0			0
79178216			46.999999			1000			0			0			0
79178228			37.256999			1000			0			0			0
79178229			41.899999			1000			0			0			0
79178230			41.899999			1000			0			0			0
79178241			21.299999			1000			0			0			0
79178246			81.499999			1000			0			0			0
79178247			81.499999			1000			0			0			0
79178258			62.999999			1000			0			0			0
79178259			46.999999			1000			0			0			0
79178268			34.500000			1000			0			0			0
79178280			18.800000			1000			0			0			0
79178289			11.900000			1000			0			0			0
79178290			14.000000			1000			0			0			0
79178291			16.000000			1000			0			0			0
79178292			15.600001			1000			0			0			0
79178293			17.100000			1000			0			0			0
79178296			15.600001			1000			0			0			0
79178313			13.500000			1000			0			0			0
79178337			15.399999			1000			0			0			0
79178338			15.399999			1000			0			0			0
79178339			15.399999			1000			0			0			0
79178340			15.399999			1000			0			0			0
79178341			15.399999			1000			0			0			0
79178370			19.500000			1000			0			0			0
79957379			22.299999			1000			0			0			0
79957380			22.200000			1000			0			0			0
79957381			22.399999			1000			0			0			0
79957382			20.900000			1000			0			0			0
79957399			21.500001			1000			0			0			0
79964937			12.899999			1000			0			0			0
79964938			15.200000			1000			0			0			0
79964944			18.299999			1000			0			0			0
79964950			16.000000			1000			0			0			0
79964951			14.700000			1000			0			0			0
79964952			15.600001			1000			0			0			0
79964953			15.699999			1000			0			0			0
79964954			16.400000			1000			0			0			0
79964961			18.899999			1000			0			0			0
83602246			81.499999			1000			0			0			0
83602263			17.299999			1000			0			0			0
83602264			35.999999			1000			0			0			0
90193315			14.000000			1000			0			0			0
90193316			17.200001			1000			0			0			0
90193317			18.200001			1000			0			0			0
90193318			18.299999			1000			0			0			0
90193319			19.600001			1000			0			0			0
90193320			22.500000			1000			0			0			0
90193321			30.000000			1000			0			0			0
90193322			32.620003			1000			0			0			0
90193330			16.100000			1000			0			0			0
90193331			20.400001			1000			0			0			0
90193332			21.100000			1000			0			0			0
90208649			81.000002			1000			0			0			0
90208650			81.499999			1000			0			0			0
90208658			81.000002			1000			0			0			0
91720904			19.100000			1000			0			0			0
91720905			19.000000			1000			0			0			0
91720907			18.600000			1000			0			0			0
91720908			19.000000			1000			0			0			0
91720911			18.800000			1000			0			0			0
91720915			18.299999			1000			0			0			0
91720916			18.100000			1000			0			0			0
91720917			18.100000			1000			0			0			0
91720918			18.400000			1000			0			0			0
91720919			18.600000			1000			0			0			0
91720922			18.000000			1000			0			0			0
91720923			18.200001			1000			0			0			0
91720927			18.100000			1000			0			0			0
91720930			18.000000			1000			0			0			0
91720952			18.600000			1000			0			0			0
GAZEWS04			86.999998			1000			0			0			0
GAZEWS05			86.999998			1000			0			0			0
GAZEWS06			86.999998			1000			0			0			0
GAZEWS07			86.999998			1000			0			0			0
GAZEWS08			86.999998			1000			0			0			0
GAZEWS09			86.999998			1000			0			0			0
GAZEWS11			86.999998			1000			0			0			0
GAZEWS12			86.999998			1000			0			0			0
GAZEWS13			86.999998			1000			0			0			0
GAZEWS14			86.999998			1000			0			0			0
GAZEWS16			91.599997			1000			0			0			0
GAZEWS17			86.999998			1000			0			0			0
GAZEWS18			86.999998			1000			0			0			0
GAZEWS19			86.999998			1000			0			0			0
GAZEWS20			86.999998			1000			0			0			0
GAZEWS21			86.999998			1000			0			0			0
GAZEWS22			86.999998			1000			0			0			0
GAZEWS23			86.999998			1000			0			0			0
GAZEWS24			86.999998			1000			0			0			0
GAZEWS26			86.999998			1000			0			0			0
GAZEWS27			86.999998			1000			0			0			0
GAZEWS28			86.999998			1000			0			0			0
GAZEWS29			86.999998			1000			0			0			0
GAZEWS30			86.999998			1000			0			0			0
GAZEWS31			86.999998			1000			0			0			0
GAZEWS32			86.999998			1000			0			0			0
GAZEWS33			86.999998			1000			0			0			0
GAZEWS34			86.999998			1000			0			0			0
GAZEWS35			86.999998			1000			0			0			0
GAZEWS36			86.999998			1000			0			0			0
GAZEWS37			86.999998			1000			0			0			0
GAZEWS38			86.999998			1000			0			0			0
GAZEWS39			86.999998			1000			0			0			0
GAZEWS40			86.999998			1000			0			0			0
GAZEWS41			86.999998			1000			0			0			0
GAZEWS42			86.999998			1000			0			0			0
GAZEWS43			86.999998			1000			0			0			0
GAZEWS44			88.771444			1000			0			0			0
GAZEWS45			86.999998			1000			0			0			0
GAZEWS46			86.999998			1000			0			0			0
L694697A			15.000000			1000			0			0			0
L699698A			19.100000			1000			0			0			0
L699702A			16.200000			1000			0			0			0
L699703A			18.000000			1000			0			0			0
L699703B			17.500000			1000			0			0			0
L699703C			17.400000			1000			0			0			0
L699703D			16.700001			1000			0			0			0
L699703E			16.899999			1000			0			0			0
L699704A			17.900000			1000			0			0			0
L699704B			17.100000			1000			0			0			0
L700703A			18.400000			1000			0			0			0
L701664A			30.000000			1000			0			0			0
L701664B			30.000000			1000			0			0			0
L701699A			20.300000			1000			0			0			0
L701703A			19.299999			1000			0			0			0
L701704A			18.500000			1000			0			0			0
L701707A			18.000000			1000			0			0			0
L701708A			18.200001			1000			0			0			0
L701708B			18.200001			1000			0			0			0
L702663A			30.000000			1000			0			0			0
L702664A			29.783721			1000			0			0			0
L702700A			21.100000			1000			0			0			0
L702700B			20.000000			1000			0			0			0
L702700C			20.000000			1000			0			0			0
L702700D			20.000000			1000			0			0			0
L702700E			20.000000			1000			0			0			0
L702701A			20.999999			1000			0			0			0
L702708A			18.700001			1000			0			0			0
L703666A			28.244401			1000			0			0			0
L703700A			21.200001			1000			0			0			0
L703700D			21.200001			1000			0			0			0
L703701A			21.200001			1000			0			0			0
L703701B			21.100000			1000			0			0			0
L703701C			21.100000			1000			0			0			0
L703702A			19.800000			1000			0			0			0
L703702B			19.899999			1000			0			0			0
L703702C			19.800000			1000			0			0			0
L703703B			19.600001			1000			0			0			0
L703708A			18.600000			1000			0			0			0
L703708B			18.899999			1000			0			0			0
L703709A			18.600000			1000			0			0			0
L703709B			18.500000			1000			0			0			0
L703710A			18.100000			1000			0			0			0
L703710B			18.100000			1000			0			0			0
L704699A			22.000001			1000			0			0			0
L704699B			22.000001			1000			0			0			0
L704699C			22.000001			1000			0			0			0
L704700A			21.200001			1000			0			0			0
L704702C			19.800000			1000			0			0			0
L704703A			19.800000			1000			0			0			0
L704704A			19.400000			1000			0			0			0
L704706A			19.400000			1000			0			0			0
L704706B			19.400000			1000			0			0			0
L704706C			19.700002			1000			0			0			0
L704707A			19.299999			1000			0			0			0
L704707B			18.899999			1000			0			0			0
L704707D			18.800000			1000			0			0			0
L704708A			18.600000			1000			0			0			0
L704708B			18.800000			1000			0			0			0
L704708C			18.600000			1000			0			0			0
L704709A			18.400000			1000			0			0			0
L704709B			18.400000			1000			0			0			0
L704709C			18.600000			1000			0			0			0
L704709D			18.600000			1000			0			0			0
L704709E			18.500000			1000			0			0			0
L704709F			18.400000			1000			0			0			0
L704710C			18.000000			1000			0			0			0
L704710E			18.000000			1000			0			0			0
L704711A			18.000000			1000			0			0			0
L704711B			18.299999			1000			0			0			0
L704711C			18.000000			1000			0			0			0
L705699D			22.000001			1000			0			0			0
L705699E			22.000001			1000			0			0			0
L705705A			19.500000			1000			0			0			0
L705705B			19.700002			1000			0			0			0
L705705D			19.700002			1000			0			0			0
L705706B			19.800000			1000			0			0			0
L705706C			18.899999			1000			0			0			0
L705706D			19.899999			1000			0			0			0
L705706E			18.899999			1000			0			0			0
L705707A			18.800000			1000			0			0			0
L705707B			18.800000			1000			0			0			0
L705707C			18.899999			1000			0			0			0
L705708A			18.700001			1000			0			0			0
L705708B			18.500000			1000			0			0			0
L705708D			18.400000			1000			0			0			0
L705708F			18.700001			1000			0			0			0
L705708G			18.600000			1000			0			0			0
L705708H			18.600000			1000			0			0			0
L705709D			18.400000			1000			0			0			0
L705709E			18.400000			1000			0			0			0
L705709F			18.200001			1000			0			0			0
L705710B			18.000000			1000			0			0			0
L705710C			18.200001			1000			0			0			0
L706705A			20.000000			1000			0			0			0
L706705B			20.000000			1000			0			0			0
L706705C			20.000000			1000			0			0			0
L706705D			20.000000			1000			0			0			0
L706706A			18.899999			1000			0			0			0
L706706B			18.899999			1000			0			0			0
L706706C			18.899999			1000			0			0			0
L706706D			18.800000			1000			0			0			0
L706706E			18.899999			1000			0			0			0
L706707A			18.600000			1000			0			0			0
L706707B			18.700001			1000			0			0			0
L706707C			18.800000			1000			0			0			0
L706708A			18.500000			1000			0			0			0
L706708D			18.400000			1000			0			0			0
L706709A			18.100000			1000			0			0			0
L706709B			18.100000			1000			0			0			0
L706710A			17.900000			1000			0			0			0
L706710B			17.900000			1000			0			0			0
L706710D			18.100000			1000			0			0			0
L706710E			18.000000			1000			0			0			0
L707710A			17.799999			1000			0			0			0
L711646A			69.999999			1000			0			0			0
L7134657			46.999999			1000			0			0			0
L717649A			70.353094			1000			0			0			0
L717649B			65.804391			1000			0			0			0
L717649C			70.349997			1000			0			0			0
L717650A			81.199999			1000			0			0			0
L718637A			81.499999			1000			0			0			0
L718638A			81.499999			1000			0			0			0
L718650A			70.349997			1000			0			0			0
L718650B			70.349997			1000			0			0			0
L721658A			46.999999			1000			0			0			0
L722641A			81.499999			1000			0			0			0
Newm0035GCN			41.840682			1000			0			0			0
Newm0041GCN			20.999999			1000			0			0			0
Newm0042GCN			20.999999			1000			0			0			0
Newm0043GCN			18.000000			1000			0			0			0
Newm0044GCN			18.000000			1000			0			0			0
Newm0045GCN			41.628755			1000			0			0			0
Newm0046GCN			41.503065			1000			0			0			0
Newm0047GCN			18.000000			1000			0			0			0
Newm0048GCN			18.000000			1000			0			0			0
Newm0049GCN			18.200001			1000			0			0			0
Newm0050GCN			18.200001			1000			0			0			0
Newm0058GCN			21.400000			1000			0			0			0
Newm0059GCN			21.400000			1000			0			0			0
70293466T			18.000000			1000			0			0			0
70293467T			18.000000			1000			0			0			0
70293389T			33.694684			1000			0			0			0
70293376T			33.229580			1000			0			0			0
70293388T			33.699409			1000			0			0			0
70293810T			19.100000			1000			0			0			0
70293817T			19.000000			1000			0			0			0
70293815T			19.800000			1000			0			0			0
70293818T			19.899999			1000			0			0			0
70293819T			19.899999			1000			0			0			0
70293813T			19.700002			1000			0			0			0
70293820T			19.899999			1000			0			0			0
70293405T			18.700001			1000			0			0			0
70293406T			18.500000			1000			0			0			0
70293455T			17.000000			1000			0			0			0
70293459T			17.299999			1000			0			0			0
70293407T			18.700001			1000			0			0			0
70293458T			16.700001			1000			0			0			0
70293456T			17.200001			1000			0			0			0
70293452T			17.600001			1000			0			0			0
70293460T			18.899999			1000			0			0			0
70293453T			17.500000			1000			0			0			0
70293461T			18.600000			1000			0			0			0
70293454T			17.400000			1000			0			0			0
70293457T			17.000000			1000			0			0			0
70293462T			18.400000			1000			0			0			0
70293465T			18.000000			1000			0			0			0
70293463T			18.299999			1000			0			0			0
70293464T			18.000000			1000			0			0			0
70293914T			19.000000			1000			0			0			0
70293917T			19.000000			1000			0			0			0
70293922T			17.500000			1000			0			0			0
70293915T			18.600000			1000			0			0			0
70293926T			18.500000			1000			0			0			0
70293928T			18.899999			1000			0			0			0
70293987T			17.000000			1000			0			0			0
70288664T			13.000471			1000			0			0			0
70288665T			12.501097			1000			0			0			0
70288666T			11.003775			1000			0			0			0
70293521T			35.999999			1000			0			0			0
70293520T			36.012424			1000			0			0			0
70293519T			35.999999			1000			0			0			0
70293518T			35.999999			1000			0			0			0
70293517T			36.004204			1000			0			0			0
70293516T			35.999999			1000			0			0			0
70293598T			27.500000			1000			0			0			0