[TITLE]
EPANET Example Network 3
Example showing how the percent of Lake water in a dual-source 
system changes over time.

[JUNCTIONS]
;ID              	Elev        	Demand      	Pattern         
10             44.8056  0 ;
15             9.7536  0.0630902 3        ;
20             39.3192  0 ;
35             3.81  0.0630902 4          ;
40             40.20312  0 ;
50             35.5092  0 ;
60             0  0 ;
601            0  0 ;
61             0  0 ;
101            12.8016  11.98398 ;
103            13.1064  8.403614 ;
105            8.6868  8.54052 ;
107            6.7056  3.447248 ;
109            6.18744  14.59907 ;
111            3.048  8.955023 ;
113            0.6096  1.262435 ;
115            4.2672  3.286999 ;
117            4.14528  7.426347 ;
119            0.6096  11.11208 ;
120            0  0 ;
121           -0.6096  2.626445 ;
123            3.3528  0.0630902 2        ;
125            3.3528  2.876913 ;
127            17.0688  1.114173 ;
129            15.5448  0 ;
131            1.8288  2.697106 ;
139            9.4488  0.3716013 ;
141            1.2192  0.6214384 ;
143           -1.3716  0.3911592 ;
145            0.3048  1.743182 ;
147            5.6388  0.5394212 ;
149            4.8768  1.707852 ;
151            10.2108  9.115272 ;
153            20.17776  2.786694 ;
157            3.99288  3.267442 ;
159            1.8288  2.606887 ;
161            1.2192  0.9968252 ;
163            1.524  0.5943097 ;
164            1.524  0 ;
166           -0.6096  0.1640345 ;
167           -1.524  0.9185933 ;
169           -1.524  0 ;
171           -1.2192  2.481968 ;
173           -1.2192  0 ;
177            2.4384  3.669957 ;
179            2.4384  0 ;
181            2.4384  0 ;
183            3.3528  0 ;
184            4.8768  0 ;
185            4.8768  1.618264 ;
187            3.81  0 ;
189            1.2192  6.808694 ;
191            7.62  5.167087 ;
193            5.4864  4.498962 ;
195            4.7244  0 ;
197            7.0104  1.075057 ;
199           -0.6096  7.527922 ;
201            0.03048  2.814454 ;
203            0.6096  0.0630902 5        ;
204            6.4008  0 ;
205            6.4008  4.123575 ;
206            0.3048  0 ;
207            2.7432  4.377829 ;
208            4.8768  0 ;
209           -0.6096  0.05488847 ;
211            2.1336  0.546992 ;
213            2.1336  0.8794773 ;
215            2.1336  5.816286 ;
217            1.8288  1.528045 ;
219            1.2192  2.606887 ;
225            2.4384  1.438456 ;
229            3.2004  4.049129 ;
231            1.524  1.039726 ;
237            4.2672  0.9848379 ;
239            3.9624  2.814454 ;
241            3.9624  0 ;
243            4.2672  0.2738115 ;
247            5.4864  4.440288 ;
249            5.4864  0 ;
251            9.144  1.524259 ;
253            10.9728  3.439678 ;
255            8.2296  2.548213 ;
257            5.1816  0 ;
259            7.62  0 ;
261            0  0 ;
263            0  0 ;
265            0  0 ;
267            6.4008  0 ;
269            0  0 ;
271            1.8288  0 ;
273            2.4384  0 ;
275            3.048  0 ;

[RESERVOIRS]
;ID              	Head        	Pattern         
River          67.056 ;
Lake           50.9016 ;

[TANKS]
;ID              	Elevation   	InitLevel   	MinLevel    	MaxLevel    	Diameter    	MinVol      	VolCurve
1              40.20312                    3.99288       0.03048       9.78408       25.908        0 ;
2              35.5092                     7.1628        1.9812        12.28344      15.24         0 ;
3              39.3192                     8.8392        1.2192        10.8204       49.9872       0 ;

[PIPES]
;ID              	Node1           	Node2           	Length      	Diameter    	Roughness   	MinorLoss   	Status
20            3             20             30.1752       2514.6        199  0 Open  ;
40            1             40             30.1752       2514.6        199  0 Open  ;
50            2             50             30.1752       2514.6        199  0 Open  ;
60            River         60             375.2088      609.6         140  0 Open  ;
101           10            101            4328.16       457.2         110  0 Open  ;
103           101           103            411.48        406.4         130  0 Open  ;
105           101           105            774.192       304.8         130  0 Open  ;
107           105           107            448.056       304.8         130  0 Open  ;
109           103           109            1200.912      406.4         130  0 Open  ;
111           109           111            609.6         304.8         130  0 Open  ;
112           115           111            353.568       304.8         130  0 Open  ;
113           111           113            512.064       304.8         130  0 Open  ;
114           115           113            609.6         203.2         130  0 Open  ;
115           107           115            594.36        203.2         130  0 Open  ;
116           113           193            505.968       304.8         130  0 Open  ;
117           263           105            830.58        304.8         130  0 Open  ;
119           115           117            664.464       304.8         130  0 Open  ;
120           119           120            222.504       304.8         130  0 Open  ;
121           120           117            569.976       304.8         130  0 Open  ;
122           121           120            624.84        203.2         130  0 Open  ;
123           121           119            609.6         762           141  0 Open  ;
125           123           121            457.2         762           141  0 Open  ;
129           121           125            283.464       609.6         130  0 Open  ;
131           125           127            987.552       609.6         130  0 Open  ;
133           20            127            239.268       508           130  0 Open  ;
135           127           129            274.32        609.6         130  0 Open  ;
137           129           131            1975.104      406.4         130  0 Open  ;
145           129           139            838.2         203.2         130  0 Open  ;
147           139           141            624.84        203.2         130  0 Open  ;
149           143           141            426.72        203.2         130  0 Open  ;
151           15            143            502.92        203.2         130  0 Open  ;
153           145           141            1069.848      304.8         130  0 Open  ;
155           147           145            670.56        304.8         130  0 Open  ;
159           147           149            268.224       304.8         130  0 Open  ;
161           149           151            310.896       203.2         130  0 Open  ;
163           151           153            356.616       304.8         130  0 Open  ;
169           125           153            1389.888      203.2         130  0 Open  ;
171           119           151            1054.608      304.8         130  0 Open  ;
173           119           157            633.984       762           141  0 Open  ;
175           157           159            886.968       762           141  0 Open  ;
177           159           161            609.6         762           141  0 Open  ;
179           161           163            131.064       762           141  0 Open  ;
180           163           164            45.72         355.6         130  0 Open  ;
181           164           166            149.352       355.6         130  0 Open  ;
183           265           169            179.832       762           141  0 Open  ;
185           167           169            18.288        203.2         130  0 Open  ;
186           187           204            30.44952      203.2         130  0 Open  ;
187           169           171            387.096       762           141  0 Open  ;
189           171           173            15.24         762           141  0 Open  ;
191           271           171            231.648       609.6         130  0 Open  ;
193           35            181            9.144         609.6         130  0 Open  ;
195           181           177            9.144         304.8         130  0 Open  ;
197           177           179            9.144         304.8         130  0 Open  ;
199           179           183            64.008        304.8         130  0 Open  ;
201           40            179            362.712       304.8         130  0 Open  ;
202           185           184            30.44952      203.2         130  0 Open  ;
203           183           185            155.448       203.2         130  0 Open  ;
204           184           205            1380.744      304.8         130  0 Open  ;
205           204           185            403.86        304.8         130  0 Open  ;
207           189           183            411.48        304.8         130  0 Open  ;
209           189           187            152.4         203.2         130  0 Open  ;
211           169           269            196.9008      304.8         130  0 Open  ;
213           191           187            780.288       304.8         130  0 Open  ;
215           267           189            374.904       304.8         130  0 Open  ;
217           191           193            158.496       304.8         130  0 Open  ;
219           193           195            109.728       304.8         130  0 Open  ;
221           161           195            701.04        203.2         130  0 Open  ;
223           197           191            350.52        304.8         130  0 Open  ;
225           111           197            850.392       304.8         130  0 Open  ;
229           173           199            1219.2        609.6         141  0 Open  ;
231           199           201            192.024       609.6         141  0 Open  ;
233           201           203            36.576        609.6         130  0 Open  ;
235           199           273            220.98        304.8         130  0 Open  ;
237           205           207            365.76        304.8         130  0 Open  ;
238           207           206            137.16        304.8         130  0 Open  ;
239           275           207            435.864       304.8         130  0 Open  ;
240           206           208            155.448       304.8         130  0 Open  ;
241           208           209            269.748       304.8         130  0 Open  ;
243           209           211            368.808       406.4         130  0 Open  ;
245           211           213            301.752       406.4         130  0 Open  ;
247           213           215            1306.068      406.4         130  0 Open  ;
249           215           217            505.968       406.4         130  0 Open  ;
251           217           219            624.84        355.6         130  0 Open  ;
257           217           225            475.488       304.8         130  0 Open  ;
261           213           229            670.56        203.2         130  0 Open  ;
263           229           231            597.408       304.8         130  0 Open  ;
269           211           237            633.984       304.8         130  0 Open  ;
271           237           229            240.792       203.2         130  0 Open  ;
273           237           239            155.448       304.8         130  0 Open  ;
275           239           241            10.668        304.8         130  0 Open  ;
277           241           243            670.56        304.8         130  0 Open  ;
281           241           247            135.636       254           130  0 Open  ;
283           239           249            131.064       304.8         130  0 Open  ;
285           247           249            3.048         304.8         130  0 Open  ;
287           247           255            423.672       254           130  0 Open  ;
289           50            255            281.94        254           130  0 Open  ;
291           255           253            335.28        254           130  0 Open  ;
293           255           251            335.28        203.2         130  0 Open  ;
295           249           251            441.96        304.8         130  0 Open  ;
297           120           257            196.596       203.2         130  0 Open  ;
299           257           259            106.68        203.2         130  0 Open  ;
301           259           263            426.72        203.2         130  0 Open  ;
303           257           261            426.72        203.2         130  0 Open  ;
305           117           261            196.596       304.8         130  0 Open  ;
307           261           263            106.68        304.8         130  0 Open  ;
309           265           267            481.584       203.2         130  0 Open  ;
311           193           267            356.616       304.8         130  0 Open  ;
313           269           189            196.9008      304.8         130  0 Open  ;
315           181           271            79.248        609.6         130  0 Open  ;
317           273           275            679.704       203.2         130  0 Open  ;
319           273           205            196.596       304.8         130  0 Open  ;
321           163           265            365.76        762           141  0 Open  ;
323           201           275            91.44         304.8         130  0 Open  ;
325           269           271            393.192       203.2         130  0 Open  ;
329           61            123            13868.4       762           140  0 Open  ;
330           60            601            0.3048        762           140  0 Closed              ;
333           601           61             0.3048        762           140  0 CV    ;

[PUMPS]
;ID              	Node1           	Node2           	Parameters
10            Lake          10 HEAD       1;
335           60            61 HEAD       2;

[VALVES]
;ID              	Node1           	Node2           	Diameter    	Type	Setting     	MinorLoss   

[TAGS]

[DEMANDS]
;Junction        	Demand      	Pattern         	Category

[STATUS]
;ID              	Status/Setting
 10              	Closed

[PATTERNS]
;ID              	Multipliers
;General Default Demand Pattern
 1               	1.34        	1.94        	1.46        	1.44        	.76         	.92         
 1               	.85         	1.07        	.96         	1.1         	1.08        	1.19        
 1               	1.16        	1.08        	.96         	.83         	.79         	.74         
 1               	.64         	.64         	.85         	.96         	1.24        	1.67        
;Demand Pattern for Node 123
 2               	0           	0           	0           	0           	0           	1219        
 2               	0           	0           	0           	1866        	1836        	1818        
 2               	1818        	1822        	1822        	1817        	1824        	1816        
 2               	1833        	1817        	1830        	1814        	1840        	1859        
;Demand Pattern for Node 15
 3               	620         	620         	620         	620         	620         	360         
 3               	360         	0           	0           	0           	0           	360         
 3               	360         	360         	360         	360         	0           	0           
 3               	0           	0           	0           	0           	360         	360         
;Demand Pattern for Node 35
 4               	1637        	1706        	1719        	1719        	1791        	1819        
 4               	1777        	1842        	1815        	1825        	1856        	1801        
 4               	1819        	1733        	1664        	1620        	1613        	1620        
 4               	1616        	1647        	1627        	1627        	1671        	1668        
;Demand Pattern for Node 203
 5               	4439        	4531        	4511        	4582        	4531        	4582        
 5               	4572        	4613        	4643        	4643        	4592        	4613        
 5               	4531        	4521        	4449        	4439        	4449        	4460        
 5               	4439        	4419        	4368        	4399        	4470        	4480        

[CURVES]
;ID              	X-Value     	Y-Value
;PUMP: Pump Curve for Pump 10 (Lake Source)
1 0            31.6992 
1 126.1804     28.0416 
1 252.3608     19.2024 
;PUMP: Pump Curve for Pump 335 (River Source)
2 0            60.96 
2 504.7216     42.0624 
2 883.2628     26.2128 

[CONTROLS]
;Lake source operates only part of the day
Link          10 OPEN AT    TIME          1
Link          10 CLOSED AT  TIME          15

;Pump 335 controlled by level in Tank 1
;When pump is closed, bypass pipe is opened
Link          335 OPEN IF   Node          1             BELOW          5.21208 
Link          335 CLOSED IF Node          1             ABOVE          5.82168 
Link          330 CLOSED IF Node          1             BELOW          5.21208 
Link          330 OPEN IF   Node          1             ABOVE          5.82168 


[RULES]

[ENERGY]
 Global Efficiency  	75
 Global Price       	0.0
 Demand Charge      	0.0

[EMITTERS]
;Junction        	Coefficient

[QUALITY]
;Node            	InitQual

[SOURCES]
;Node            	Type        	Quality     	Pattern

[REACTIONS]
;Type     	Pipe/Tank       	Coefficient


[REACTIONS]
 Order Bulk            	1
 Order Tank            	1
 Order Wall            	1
 Global Bulk           	0.0
 Global Wall           	0.0
 Limiting Potential    	0.0
 Roughness Correlation 	0.0

[MIXING]
;Tank            	Model

[TIMES]
 Duration           	96:00
 Hydraulic Timestep 	1:00 
 Quality Timestep   	0:05 
 Pattern Timestep   	1:00 
 Pattern Start      	0:00 
 Report Timestep    	1:00 
 Report Start       	0:00 
 Start ClockTime    	12 am
 Statistic          	None

[REPORT]
 Status             	Yes
 Summary            	No
 Page               	0

[OPTIONS]
Units         LPS           
 Headloss           	H-W
 Specific Gravity   	1.0
 Viscosity          	1.0
 Trials             	40
 Accuracy           	0.001
 CHECKFREQ          	2
 MAXCHECK           	10
 DAMPLIMIT          	0
 Unbalanced         	Continue 10
 Pattern            	1
 Demand Multiplier  	1.0
 Emitter Exponent   	0.5
 Quality            	Trace Lake
 Diffusivity        	1.0
 Tolerance          	0.01

[COORDINATES]
;Node            	X-Coord         	Y-Coord
 10              	9.00            	27.85           
 15              	38.68           	23.76           
 20              	29.44           	26.91           
 35              	25.46           	10.52           
 40              	27.02           	9.81            
 50              	33.01           	3.01            
 60              	23.90           	29.94           
 601             	23.00           	29.49           
 61              	23.71           	29.03           
 101             	13.81           	22.94           
 103             	12.96           	21.31           
 105             	16.97           	21.28           
 107             	18.45           	20.46           
 109             	17.64           	18.92           
 111             	20.21           	17.53           
 113             	22.04           	16.61           
 115             	20.98           	19.18           
 117             	21.69           	21.28           
 119             	23.70           	22.76           
 120             	22.08           	23.10           
 121             	23.54           	25.50           
 123             	23.37           	27.31           
 125             	24.59           	25.64           
 127             	29.29           	26.40           
 129             	30.32           	26.39           
 131             	37.89           	29.55           
 139             	33.28           	24.54           
 141             	35.68           	23.08           
 143             	37.47           	21.97           
 145             	33.02           	19.29           
 147             	30.24           	20.38           
 149             	29.62           	20.74           
 151             	28.29           	21.39           
 153             	28.13           	22.63           
 157             	24.85           	20.16           
 159             	23.12           	17.50           
 161             	25.10           	15.28           
 163             	25.39           	14.98           
 164             	25.98           	15.14           
 166             	26.48           	15.13           
 167             	25.88           	12.98           
 169             	25.68           	12.74           
 171             	26.65           	11.80           
 173             	26.87           	11.59           
 179             	25.71           	10.40           
 181             	25.72           	10.74           
 183             	25.45           	10.18           
 184             	25.15           	9.52            
 185             	25.01           	9.67            
 187             	23.64           	11.04           
 189             	24.15           	11.37           
 191             	22.10           	14.07           
 193             	22.88           	14.35           
 195             	23.18           	14.72           
 197             	20.97           	15.18           
 199             	29.42           	8.44            
 201             	30.89           	8.57            
 203             	31.14           	8.89            
 204             	23.80           	10.90           
 205             	29.20           	6.46            
 206             	31.66           	6.64            
 207             	31.00           	6.61            
 208             	32.54           	6.81            
 209             	33.76           	6.59            
 211             	34.20           	5.54            
 213             	35.26           	6.16            
 215             	39.95           	8.73            
 217             	42.11           	8.67            
 219             	44.86           	9.32            
 225             	43.53           	7.38            
 229             	36.16           	3.49            
 231             	38.38           	2.54            
 237             	35.37           	3.08            
 239             	35.76           	2.31            
 241             	35.87           	2.11            
 243             	37.04           	0.00            
 247             	35.02           	2.05            
 249             	35.02           	1.81            
 251             	34.15           	1.10            
 253             	32.17           	1.88            
 255             	33.51           	2.45            
 257             	21.17           	23.32           
 259             	20.80           	23.40           
 261             	20.79           	21.45           
 263             	20.32           	21.57           
 265             	25.39           	13.60           
 267             	23.38           	12.95           
 269             	25.03           	12.14           
 271             	25.97           	11.00           
 273             	29.16           	7.38            
 275             	31.07           	8.29            
 River           	24.15           	31.06           
 Lake            	8.00            	27.53           
 1               	27.46           	9.84            
 2               	32.99           	3.45            
 3               	29.41           	27.27           

[VERTICES]
;Link            	X-Coord         	Y-Coord

[LABELS]
;X-Coord           Y-Coord          Label & Anchor Node
 8.00             29.42            "LAKE"                 
 25.00            31.10            "RIVER"                 

[BACKDROP]
 DIMENSIONS     	6.16            	-1.55           	46.70           	32.61           
 UNITS          	None
 FILE           	
 OFFSET         	0.00            	0.00            

[END]
