[TITLE]
;;Project Title/Notes
EPANET Example Network 3
Example showing how the percent of Lake water in a dual-source 
system changes over time.
Converted using pyEPANETtoSWMM

[JUNCTIONS]
;;Name			Elevation			MaxDepth			InitDepth			SurDepth			Aponded
10			44.8056			1000			0			0			0
15			9.7536			1000			0			0			0
20			39.3192			1000			0			0			0
35			3.81			1000			0			0			0
40			40.20312			1000			0			0			0
50			35.5092			1000			0			0			0
60			0			1000			0			0			0
601			0			1000			0			0			0
61			0			1000			0			0			0
101			12.8016			1000			0			0			0
103			13.1064			1000			0			0			0
105			8.6868			1000			0			0			0
107			6.7056			1000			0			0			0
109			6.18744			1000			0			0			0
111			3.048			1000			0			0			0
113			0.6096			1000			0			0			0
115			4.2672			1000			0			0			0
117			4.14528			1000			0			0			0
119			0.6096			1000			0			0			0
120			0			1000			0			0			0
121			-0.6096			1000			0			0			0
123			3.3528			1000			0			0			0
125			3.3528			1000			0			0			0
127			17.0688			1000			0			0			0
129			15.5448			1000			0			0			0
131			1.8288			1000			0			0			0
139			9.4488			1000			0			0			0
141			1.2192			1000			0			0			0
143			-1.3716			1000			0			0			0
145			0.3048			1000			0			0			0
147			5.6388			1000			0			0			0
149			4.8768			1000			0			0			0
151			10.2108			1000			0			0			0
153			20.17776			1000			0			0			0
157			3.99288			1000			0			0			0
159			1.8288			1000			0			0			0
161			1.2192			1000			0			0			0
163			1.524			1000			0			0			0
164			1.524			1000			0			0			0
166			-0.6096			1000			0			0			0
167			-1.524			1000			0			0			0
169			-1.524			1000			0			0			0
171			-1.2192			1000			0			0			0
173			-1.2192			1000			0			0			0
177			2.4384			1000			0			0			0
179			2.4384			1000			0			0			0
181			2.4384			1000			0			0			0
183			3.3528			1000			0			0			0
184			4.8768			1000			0			0			0
185			4.8768			1000			0			0			0
187			3.81			1000			0			0			0
189			1.2192			1000			0			0			0
191			7.62			1000			0			0			0
193			5.4864			1000			0			0			0
195			4.7244			1000			0			0			0
197			7.0104			1000			0			0			0
199			-0.6096			1000			0			0			0
201			0.03048			1000			0			0			0
203			0.6096			1000			0			0			0
204			6.4008			1000			0			0			0
205			6.4008			1000			0			0			0
206			0.3048			1000			0			0			0
207			2.7432			1000			0			0			0
208			4.8768			1000			0			0			0
209			-0.6096			1000			0			0			0
211			2.1336			1000			0			0			0
213			2.1336			1000			0			0			0
215			2.1336			1000			0			0			0
217			1.8288			1000			0			0			0
219			1.2192			1000			0			0			0
225			2.4384			1000			0			0			0
229			3.2004			1000			0			0			0
231			1.524			1000			0			0			0
237			4.2672			1000			0			0			0
239			3.9624			1000			0			0			0
241			3.9624			1000			0			0			0
243			4.2672			1000			0			0			0
247			5.4864			1000			0			0			0
249			5.4864			1000			0			0			0
251			9.144			1000			0			0			0
253			10.9728			1000			0			0			0
255			8.2296			1000			0			0			0
257			5.1816			1000			0			0			0
259			7.62			1000			0			0			0
261			0			1000			0			0			0
263			0			1000			0			0			0
265			0			1000			0			0			0
267			6.4008			1000			0			0			0
269			0			1000			0			0			0
271			1.8288			1000			0			0			0
273			2.4384			1000			0			0			0
275			3.048			1000			0			0			0

[INFLOWS]
;;Node           Constituent      Time Series      Type     Mfactor  Sfactor  Baseline Pattern
15			FLOW			""			FLOW			1.0			1.0			-0.0630902			3
35			FLOW			""			FLOW			1.0			1.0			-0.0630902			4
101			FLOW			""			FLOW			1.0			1.0			-11.98398			;
103			FLOW			""			FLOW			1.0			1.0			-8.403614			;
105			FLOW			""			FLOW			1.0			1.0			-8.54052			;
107			FLOW			""			FLOW			1.0			1.0			-3.447248			;
109			FLOW			""			FLOW			1.0			1.0			-14.59907			;
111			FLOW			""			FLOW			1.0			1.0			-8.955023			;
113			FLOW			""			FLOW			1.0			1.0			-1.262435			;
115			FLOW			""			FLOW			1.0			1.0			-3.286999			;
117			FLOW			""			FLOW			1.0			1.0			-7.426347			;
119			FLOW			""			FLOW			1.0			1.0			-11.11208			;
121			FLOW			""			FLOW			1.0			1.0			-2.626445			;
123			FLOW			""			FLOW			1.0			1.0			-0.0630902			2
125			FLOW			""			FLOW			1.0			1.0			-2.876913			;
127			FLOW			""			FLOW			1.0			1.0			-1.114173			;
131			FLOW			""			FLOW			1.0			1.0			-2.697106			;
139			FLOW			""			FLOW			1.0			1.0			-0.3716013			;
141			FLOW			""			FLOW			1.0			1.0			-0.6214384			;
143			FLOW			""			FLOW			1.0			1.0			-0.3911592			;
145			FLOW			""			FLOW			1.0			1.0			-1.743182			;
147			FLOW			""			FLOW			1.0			1.0			-0.5394212			;
149			FLOW			""			FLOW			1.0			1.0			-1.707852			;
151			FLOW			""			FLOW			1.0			1.0			-9.115272			;
153			FLOW			""			FLOW			1.0			1.0			-2.786694			;
157			FLOW			""			FLOW			1.0			1.0			-3.267442			;
159			FLOW			""			FLOW			1.0			1.0			-2.606887			;
161			FLOW			""			FLOW			1.0			1.0			-0.9968252			;
163			FLOW			""			FLOW			1.0			1.0			-0.5943097			;
166			FLOW			""			FLOW			1.0			1.0			-0.1640345			;
167			FLOW			""			FLOW			1.0			1.0			-0.9185933			;
171			FLOW			""			FLOW			1.0			1.0			-2.481968			;
177			FLOW			""			FLOW			1.0			1.0			-3.669957			;
185			FLOW			""			FLOW			1.0			1.0			-1.618264			;
189			FLOW			""			FLOW			1.0			1.0			-6.808694			;
191			FLOW			""			FLOW			1.0			1.0			-5.167087			;
193			FLOW			""			FLOW			1.0			1.0			-4.498962			;
197			FLOW			""			FLOW			1.0			1.0			-1.075057			;
199			FLOW			""			FLOW			1.0			1.0			-7.527922			;
201			FLOW			""			FLOW			1.0			1.0			-2.814454			;
203			FLOW			""			FLOW			1.0			1.0			-0.0630902			5
205			FLOW			""			FLOW			1.0			1.0			-4.123575			;
207			FLOW			""			FLOW			1.0			1.0			-4.377829			;
209			FLOW			""			FLOW			1.0			1.0			-0.05488847			;
211			FLOW			""			FLOW			1.0			1.0			-0.546992			;
213			FLOW			""			FLOW			1.0			1.0			-0.8794773			;
215			FLOW			""			FLOW			1.0			1.0			-5.816286			;
217			FLOW			""			FLOW			1.0			1.0			-1.528045			;
219			FLOW			""			FLOW			1.0			1.0			-2.606887			;
225			FLOW			""			FLOW			1.0			1.0			-1.438456			;
229			FLOW			""			FLOW			1.0			1.0			-4.049129			;
231			FLOW			""			FLOW			1.0			1.0			-1.039726			;
237			FLOW			""			FLOW			1.0			1.0			-0.9848379			;
239			FLOW			""			FLOW			1.0			1.0			-2.814454			;
243			FLOW			""			FLOW			1.0			1.0			-0.2738115			;
247			FLOW			""			FLOW			1.0			1.0			-4.440288			;
251			FLOW			""			FLOW			1.0			1.0			-1.524259			;
253			FLOW			""			FLOW			1.0			1.0			-3.439678			;
255			FLOW			""			FLOW			1.0			1.0			-2.548213			;

[STORAGE]
;;Name           Elev.    MaxDepth   InitDepth  Shape      Curve Name/Params            N/A      Fevap    Psi      Ksat     IMD   
River			66.056			1000			1			FUNCTIONAL			10000			0			1000000000
Lake			49.9016			1000			1			FUNCTIONAL			10000			0			1000000000
1			40.20312			9.78408			3.99288			FUNCTIONAL			0			0			527.1629134140001
2			35.5092			12.28344			7.1628			FUNCTIONAL			0			0			182.40931260000002
3			39.3192			10.8204			8.8392			FUNCTIONAL			0			0			1962.4323486758403

[CONDUITS]
;;Name           From Node        To Node          Length     Roughness  InOffset   OutOffset  InitFlow   MaxFlow  
20			3			20			30.1752			0.01			0			0			0
40			1			40			30.1752			0.01			0			0			0
50			2			50			30.1752			0.01			0			0			0
60			River			60			375.2088			0.01			0			0			0
101			10			101			4328.16			0.01			0			0			0
103			101			103			411.48			0.01			0			0			0
105			101			105			774.192			0.01			0			0			0
107			105			107			448.056			0.01			0			0			0
109			103			109			1200.912			0.01			0			0			0
111			109			111			609.6			0.01			0			0			0
112			115			111			353.568			0.01			0			0			0
113			111			113			512.064			0.01			0			0			0
114			115			113			609.6			0.01			0			0			0
115			107			115			594.36			0.01			0			0			0
116			113			193			505.968			0.01			0			0			0
117			263			105			830.58			0.01			0			0			0
119			115			117			664.464			0.01			0			0			0
120			119			120			222.504			0.01			0			0			0
121			120			117			569.976			0.01			0			0			0
122			121			120			624.84			0.01			0			0			0
123			121			119			609.6			0.01			0			0			0
125			123			121			457.2			0.01			0			0			0
129			121			125			283.464			0.01			0			0			0
131			125			127			987.552			0.01			0			0			0
133			20			127			239.268			0.01			0			0			0
135			127			129			274.32			0.01			0			0			0
137			129			131			1975.104			0.01			0			0			0
145			129			139			838.2			0.01			0			0			0
147			139			141			624.84			0.01			0			0			0
149			143			141			426.72			0.01			0			0			0
151			15			143			502.92			0.01			0			0			0
153			145			141			1069.848			0.01			0			0			0
155			147			145			670.56			0.01			0			0			0
159			147			149			268.224			0.01			0			0			0
161			149			151			310.896			0.01			0			0			0
163			151			153			356.616			0.01			0			0			0
169			125			153			1389.888			0.01			0			0			0
171			119			151			1054.608			0.01			0			0			0
173			119			157			633.984			0.01			0			0			0
175			157			159			886.968			0.01			0			0			0
177			159			161			609.6			0.01			0			0			0
179			161			163			131.064			0.01			0			0			0
180			163			164			45.72			0.01			0			0			0
181			164			166			149.352			0.01			0			0			0
183			265			169			179.832			0.01			0			0			0
185			167			169			18.288			0.01			0			0			0
186			187			204			30.44952			0.01			0			0			0
187			169			171			387.096			0.01			0			0			0
189			171			173			15.24			0.01			0			0			0
191			271			171			231.648			0.01			0			0			0
193			35			181			9.144			0.01			0			0			0
195			181			177			9.144			0.01			0			0			0
197			177			179			9.144			0.01			0			0			0
199			179			183			64.008			0.01			0			0			0
201			40			179			362.712			0.01			0			0			0
202			185			184			30.44952			0.01			0			0			0
203			183			185			155.448			0.01			0			0			0
204			184			205			1380.744			0.01			0			0			0
205			204			185			403.86			0.01			0			0			0
207			189			183			411.48			0.01			0			0			0
209			189			187			152.4			0.01			0			0			0
211			169			269			196.9008			0.01			0			0			0
213			191			187			780.288			0.01			0			0			0
215			267			189			374.904			0.01			0			0			0
217			191			193			158.496			0.01			0			0			0
219			193			195			109.728			0.01			0			0			0
221			161			195			701.04			0.01			0			0			0
223			197			191			350.52			0.01			0			0			0
225			111			197			850.392			0.01			0			0			0
229			173			199			1219.2			0.01			0			0			0
231			199			201			192.024			0.01			0			0			0
233			201			203			36.576			0.01			0			0			0
235			199			273			220.98			0.01			0			0			0
237			205			207			365.76			0.01			0			0			0
238			207			206			137.16			0.01			0			0			0
239			275			207			435.864			0.01			0			0			0
240			206			208			155.448			0.01			0			0			0
241			208			209			269.748			0.01			0			0			0
243			209			211			368.808			0.01			0			0			0
245			211			213			301.752			0.01			0			0			0
247			213			215			1306.068			0.01			0			0			0
249			215			217			505.968			0.01			0			0			0
251			217			219			624.84			0.01			0			0			0
257			217			225			475.488			0.01			0			0			0
261			213			229			670.56			0.01			0			0			0
263			229			231			597.408			0.01			0			0			0
269			211			237			633.984			0.01			0			0			0
271			237			229			240.792			0.01			0			0			0
273			237			239			155.448			0.01			0			0			0
275			239			241			10.668			0.01			0			0			0
277			241			243			670.56			0.01			0			0			0
281			241			247			135.636			0.01			0			0			0
283			239			249			131.064			0.01			0			0			0
285			247			249			3.048			0.01			0			0			0
287			247			255			423.672			0.01			0			0			0
289			50			255			281.94			0.01			0			0			0
291			255			253			335.28			0.01			0			0			0
293			255			251			335.28			0.01			0			0			0
295			249			251			441.96			0.01			0			0			0
297			120			257			196.596			0.01			0			0			0
299			257			259			106.68			0.01			0			0			0
301			259			263			426.72			0.01			0			0			0
303			257			261			426.72			0.01			0			0			0
305			117			261			196.596			0.01			0			0			0
307			261			263			106.68			0.01			0			0			0
309			265			267			481.584			0.01			0			0			0
311			193			267			356.616			0.01			0			0			0
313			269			189			196.9008			0.01			0			0			0
315			181			271			79.248			0.01			0			0			0
317			273			275			679.704			0.01			0			0			0
319			273			205			196.596			0.01			0			0			0
321			163			265			365.76			0.01			0			0			0
323			201			275			91.44			0.01			0			0			0
325			269			271			393.192			0.01			0			0			0
329			61			123			13868.4			0.01			0			0			0
330			60			601			0.3048			0.01			0			0			0
333			601			61			0.3048			0.01			0			0			0

[XSECTIONS]
;;Link           Shape        Geom1            Geom2      Geom3      Geom4      Barrels    Culvert 
20			CIRCULAR			2.5145999999999997			0			0			0			1
40			CIRCULAR			2.5145999999999997			0			0			0			1
50			CIRCULAR			2.5145999999999997			0			0			0			1
60			CIRCULAR			0.6096			0			0			0			1
101			CIRCULAR			0.4572			0			0			0			1
103			CIRCULAR			0.4064			0			0			0			1
105			CIRCULAR			0.3048			0			0			0			1
107			CIRCULAR			0.3048			0			0			0			1
109			CIRCULAR			0.4064			0			0			0			1
111			CIRCULAR			0.3048			0			0			0			1
112			CIRCULAR			0.3048			0			0			0			1
113			CIRCULAR			0.3048			0			0			0			1
114			CIRCULAR			0.2032			0			0			0			1
115			CIRCULAR			0.2032			0			0			0			1
116			CIRCULAR			0.3048			0			0			0			1
117			CIRCULAR			0.3048			0			0			0			1
119			CIRCULAR			0.3048			0			0			0			1
120			CIRCULAR			0.3048			0			0			0			1
121			CIRCULAR			0.3048			0			0			0			1
122			CIRCULAR			0.2032			0			0			0			1
123			CIRCULAR			0.762			0			0			0			1
125			CIRCULAR			0.762			0			0			0			1
129			CIRCULAR			0.6096			0			0			0			1
131			CIRCULAR			0.6096			0			0			0			1
133			CIRCULAR			0.508			0			0			0			1
135			CIRCULAR			0.6096			0			0			0			1
137			CIRCULAR			0.4064			0			0			0			1
145			CIRCULAR			0.2032			0			0			0			1
147			CIRCULAR			0.2032			0			0			0			1
149			CIRCULAR			0.2032			0			0			0			1
151			CIRCULAR			0.2032			0			0			0			1
153			CIRCULAR			0.3048			0			0			0			1
155			CIRCULAR			0.3048			0			0			0			1
159			CIRCULAR			0.3048			0			0			0			1
161			CIRCULAR			0.2032			0			0			0			1
163			CIRCULAR			0.3048			0			0			0			1
169			CIRCULAR			0.2032			0			0			0			1
171			CIRCULAR			0.3048			0			0			0			1
173			CIRCULAR			0.762			0			0			0			1
175			CIRCULAR			0.762			0			0			0			1
177			CIRCULAR			0.762			0			0			0			1
179			CIRCULAR			0.762			0			0			0			1
180			CIRCULAR			0.3556			0			0			0			1
181			CIRCULAR			0.3556			0			0			0			1
183			CIRCULAR			0.762			0			0			0			1
185			CIRCULAR			0.2032			0			0			0			1
186			CIRCULAR			0.2032			0			0			0			1
187			CIRCULAR			0.762			0			0			0			1
189			CIRCULAR			0.762			0			0			0			1
191			CIRCULAR			0.6096			0			0			0			1
193			CIRCULAR			0.6096			0			0			0			1
195			CIRCULAR			0.3048			0			0			0			1
197			CIRCULAR			0.3048			0			0			0			1
199			CIRCULAR			0.3048			0			0			0			1
201			CIRCULAR			0.3048			0			0			0			1
202			CIRCULAR			0.2032			0			0			0			1
203			CIRCULAR			0.2032			0			0			0			1
204			CIRCULAR			0.3048			0			0			0			1
205			CIRCULAR			0.3048			0			0			0			1
207			CIRCULAR			0.3048			0			0			0			1
209			CIRCULAR			0.2032			0			0			0			1
211			CIRCULAR			0.3048			0			0			0			1
213			CIRCULAR			0.3048			0			0			0			1
215			CIRCULAR			0.3048			0			0			0			1
217			CIRCULAR			0.3048			0			0			0			1
219			CIRCULAR			0.3048			0			0			0			1
221			CIRCULAR			0.2032			0			0			0			1
223			CIRCULAR			0.3048			0			0			0			1
225			CIRCULAR			0.3048			0			0			0			1
229			CIRCULAR			0.6096			0			0			0			1
231			CIRCULAR			0.6096			0			0			0			1
233			CIRCULAR			0.6096			0			0			0			1
235			CIRCULAR			0.3048			0			0			0			1
237			CIRCULAR			0.3048			0			0			0			1
238			CIRCULAR			0.3048			0			0			0			1
239			CIRCULAR			0.3048			0			0			0			1
240			CIRCULAR			0.3048			0			0			0			1
241			CIRCULAR			0.3048			0			0			0			1
243			CIRCULAR			0.4064			0			0			0			1
245			CIRCULAR			0.4064			0			0			0			1
247			CIRCULAR			0.4064			0			0			0			1
249			CIRCULAR			0.4064			0			0			0			1
251			CIRCULAR			0.3556			0			0			0			1
257			CIRCULAR			0.3048			0			0			0			1
261			CIRCULAR			0.2032			0			0			0			1
263			CIRCULAR			0.3048			0			0			0			1
269			CIRCULAR			0.3048			0			0			0			1
271			CIRCULAR			0.2032			0			0			0			1
273			CIRCULAR			0.3048			0			0			0			1
275			CIRCULAR			0.3048			0			0			0			1
277			CIRCULAR			0.3048			0			0			0			1
281			CIRCULAR			0.254			0			0			0			1
283			CIRCULAR			0.3048			0			0			0			1
285			CIRCULAR			0.3048			0			0			0			1
287			CIRCULAR			0.254			0			0			0			1
289			CIRCULAR			0.254			0			0			0			1
291			CIRCULAR			0.254			0			0			0			1
293			CIRCULAR			0.2032			0			0			0			1
295			CIRCULAR			0.3048			0			0			0			1
297			CIRCULAR			0.2032			0			0			0			1
299			CIRCULAR			0.2032			0			0			0			1
301			CIRCULAR			0.2032			0			0			0			1
303			CIRCULAR			0.2032			0			0			0			1
305			CIRCULAR			0.3048			0			0			0			1
307			CIRCULAR			0.3048			0			0			0			1
309			CIRCULAR			0.2032			0			0			0			1
311			CIRCULAR			0.3048			0			0			0			1
313			CIRCULAR			0.3048			0			0			0			1
315			CIRCULAR			0.6096			0			0			0			1
317			CIRCULAR			0.2032			0			0			0			1
319			CIRCULAR			0.3048			0			0			0			1
321			CIRCULAR			0.762			0			0			0			1
323			CIRCULAR			0.3048			0			0			0			1
325			CIRCULAR			0.2032			0			0			0			1
329			CIRCULAR			0.762			0			0			0			1
330			CIRCULAR			0.762			0			0			0			1
333			CIRCULAR			0.762			0			0			0			1

[PUMPS]
;;Name             InNode             OutNode             Curve            initStatus 
10			Lake			10						ON
335			60			61						ON

[COORDINATES]
;;Node           X-Coord            Y-Coord 
10			9.00			27.85
15			38.68			23.76
20			29.44			26.91
35			25.46			10.52
40			27.02			9.81
50			33.01			3.01
60			23.90			29.94
601			23.00			29.49
61			23.71			29.03
101			13.81			22.94
103			12.96			21.31
105			16.97			21.28
107			18.45			20.46
109			17.64			18.92
111			20.21			17.53
113			22.04			16.61
115			20.98			19.18
117			21.69			21.28
119			23.70			22.76
120			22.08			23.10
121			23.54			25.50
123			23.37			27.31
125			24.59			25.64
127			29.29			26.40
129			30.32			26.39
131			37.89			29.55
139			33.28			24.54
141			35.68			23.08
143			37.47			21.97
145			33.02			19.29
147			30.24			20.38
149			29.62			20.74
151			28.29			21.39
153			28.13			22.63
157			24.85			20.16
159			23.12			17.50
161			25.10			15.28
163			25.39			14.98
164			25.98			15.14
166			26.48			15.13
167			25.88			12.98
169			25.68			12.74
171			26.65			11.80
173			26.87			11.59
179			25.71			10.40
181			25.72			10.74
183			25.45			10.18
184			25.15			9.52
185			25.01			9.67
187			23.64			11.04
189			24.15			11.37
191			22.10			14.07
193			22.88			14.35
195			23.18			14.72
197			20.97			15.18
199			29.42			8.44
201			30.89			8.57
203			31.14			8.89
204			23.80			10.90
205			29.20			6.46
206			31.66			6.64
207			31.00			6.61
208			32.54			6.81
209			33.76			6.59
211			34.20			5.54
213			35.26			6.16
215			39.95			8.73
217			42.11			8.67
219			44.86			9.32
225			43.53			7.38
229			36.16			3.49
231			38.38			2.54
237			35.37			3.08
239			35.76			2.31
241			35.87			2.11
243			37.04			0.00
247			35.02			2.05
249			35.02			1.81
251			34.15			1.10
253			32.17			1.88
255			33.51			2.45
257			21.17			23.32
259			20.80			23.40
261			20.79			21.45
263			20.32			21.57
265			25.39			13.60
267			23.38			12.95
269			25.03			12.14
271			25.97			11.00
273			29.16			7.38
275			31.07			8.29
River			24.15			31.06
Lake			8.00			27.53
1			27.46			9.84
2			32.99			3.45
3			29.41			27.27
Dummy			0			0
[OUTFALLS]
;;Name           Elevation  Type       Stage Data       Gated    Route To         
Dummy                0          FREE                        NO                      

[LABELS]
;;X-Coord         	Y-Coord           	Label 
8.00			29.42			"LAKE"
25.00			31.10			"RIVER"

[VERTICES]
;;Link             X-Coord          Y-Coord 

[ORIFICES]
;;Name           From Node        To Node          Type         Offset     Qcoeff     Gated    CloseTime 

[PATTERNS]
;;Name             Type       Multipliers
1			HOURLY			1.34			1.94			1.46			1.44			.76			.92
1			.85			1.07			.96			1.1			1.08			1.19
1			1.16			1.08			.96			.83			.79			.74
1			.64			.64			.85			.96			1.24			1.67
2			HOURLY			0			0			0			0			0			1219
2			0			0			0			1866			1836			1818
2			1818			1822			1822			1817			1824			1816
2			1833			1817			1830			1814			1840			1859
3			HOURLY			620			620			620			620			620			360
3			360			0			0			0			0			360
3			360			360			360			360			0			0
3			0			0			0			0			360			360
4			HOURLY			1637			1706			1719			1719			1791			1819
4			1777			1842			1815			1825			1856			1801
4			1819			1733			1664			1620			1613			1620
4			1616			1647			1627			1627			1671			1668
5			HOURLY			4439			4531			4511			4582			4531			4582
5			4572			4613			4643			4643			4592			4613
5			4531			4521			4449			4439			4449			4460
5			4439			4419			4368			4399			4470			4480

[OPTIONS]
FLOW_ROUTING         DYNWAVE

START_DATE			01/01/2020
START_TIME           00:00:00
REPORT_START_DATE			01/01/2020
REPORT_START_TIME    00:00:00
END_DATE             01/01/2020
END_TIME             06:00:00
